<?xml version="1.0" encoding="UTF-8"?>

<net version="1.16" junctionCornerDetail="5" limitTurnSpeed="5.50" xmlns:xsi="http://www.w3.org/2001/XMLSchema-instance" xsi:noNamespaceSchemaLocation="http://sumo.dlr.de/xsd/net_file.xsd">

    <location netOffset="0.00,0.00" convBoundary="0.00,0.00,200.00,200.00" origBoundary="10000000000.00,10000000000.00,-10000000000.00,-10000000000.00" projParameter="!"/>

    <edge id=":J1_0" function="internal">
        <lane id=":J1_0_0" index="0" disallow="pedestrian" speed="13.89" length="0.10" shape="100.00,101.60 100.00,101.60"/>
    </edge>
    <edge id=":J1_1" function="internal">
        <lane id=":J1_1_0" index="0" disallow="pedestrian" speed="13.89" length="0.10" shape="100.00,98.40 100.00,98.40"/>
    </edge>
    <edge id=":J2_0" function="internal">
        <lane id=":J2_0_0" index="0" disallow="pedestrian" speed="6.51" length="9.03" shape="198.40,107.20 198.05,104.75 197.00,103.00 195.25,101.95 192.80,101.60"/>
    </edge>
    <edge id=":J2_1" function="internal">
        <lane id=":J2_1_0" index="0" disallow="pedestrian" speed="13.89" length="14.40" shape="198.40,107.20 198.40,92.80"/>
    </edge>
    <edge id=":J2_2" function="internal">
        <lane id=":J2_2_0" index="0" disallow="pedestrian" speed="13.89" length="14.40" shape="201.60,92.80 201.60,107.20"/>
    </edge>
    <edge id=":J2_3" function="internal">
        <lane id=":J2_3_0" index="0" disallow="pedestrian" speed="8.00" length="4.07" shape="201.60,92.80 201.05,96.65 200.96,96.80"/>
    </edge>
    <edge id=":J2_6" function="internal">
        <lane id=":J2_6_0" index="0" disallow="pedestrian" speed="8.00" length="10.13" shape="200.96,96.80 199.40,99.40 196.65,101.05 192.80,101.60"/>
    </edge>
    <edge id=":J2_4" function="internal">
        <lane id=":J2_4_0" index="0" disallow="pedestrian" speed="6.51" length="9.03" shape="192.80,98.40 195.25,98.05 197.00,97.00 198.05,95.25 198.40,92.80"/>
    </edge>
    <edge id=":J2_5" function="internal">
        <lane id=":J2_5_0" index="0" disallow="pedestrian" speed="8.00" length="14.19" shape="192.80,98.40 196.65,98.95 199.40,100.60 201.05,103.35 201.60,107.20"/>
    </edge>

    <edge id="-E0" from="J1" to="J0" priority="-1">
        <lane id="-E0_0" index="0" disallow="pedestrian" speed="13.89" length="100.00" shape="100.00,101.60 0.00,101.60"/>
    </edge>
    <edge id="-E1" from="J2" to="J1" priority="-1">
        <lane id="-E1_0" index="0" disallow="pedestrian" speed="13.89" length="92.80" shape="192.80,101.60 100.00,101.60"/>
    </edge>
    <edge id="-E2" from="J4" to="J2" priority="-1">
        <lane id="-E2_0" index="0" disallow="pedestrian" speed="13.89" length="92.80" shape="198.40,200.00 198.40,107.20"/>
    </edge>
    <edge id="-E3" from="J5" to="J2" priority="-1">
        <lane id="-E3_0" index="0" disallow="pedestrian" speed="13.89" length="92.80" shape="201.60,0.00 201.60,92.80"/>
    </edge>
    <edge id="E0" from="J0" to="J1" priority="-1">
        <lane id="E0_0" index="0" disallow="pedestrian" speed="13.89" length="100.00" shape="0.00,98.40 100.00,98.40"/>
    </edge>
    <edge id="E1" from="J1" to="J2" priority="-1">
        <lane id="E1_0" index="0" disallow="pedestrian" speed="13.89" length="92.80" shape="100.00,98.40 192.80,98.40"/>
    </edge>
    <edge id="E2" from="J2" to="J4" priority="-1">
        <lane id="E2_0" index="0" disallow="pedestrian" speed="13.89" length="92.80" shape="201.60,107.20 201.60,200.00"/>
    </edge>
    <edge id="E3" from="J2" to="J5" priority="-1">
        <lane id="E3_0" index="0" disallow="pedestrian" speed="13.89" length="92.80" shape="198.40,92.80 198.40,0.00"/>
    </edge>

    <junction id="J0" type="dead_end" x="0.00" y="100.00" incLanes="-E0_0" intLanes="" shape="0.00,100.00 0.00,103.20 0.00,100.00"/>
    <junction id="J1" type="priority" x="100.00" y="100.00" incLanes="-E1_0 E0_0" intLanes=":J1_0_0 :J1_1_0" shape="100.00,103.20 100.00,96.80 100.00,103.20">
        <request index="0" response="00" foes="00" cont="0"/>
        <request index="1" response="00" foes="00" cont="0"/>
    </junction>
    <junction id="J2" type="priority" x="200.00" y="100.00" incLanes="-E2_0 -E3_0 E1_0" intLanes=":J2_0_0 :J2_1_0 :J2_2_0 :J2_6_0 :J2_4_0 :J2_5_0" shape="196.80,107.20 203.20,107.20 203.20,92.80 196.80,92.80 196.36,95.02 195.80,95.80 195.02,96.36 194.02,96.69 192.80,96.80 192.80,103.20 195.02,103.64 195.80,104.20 196.36,104.98 196.69,105.98">
        <request index="0" response="000000" foes="001000" cont="0"/>
        <request index="1" response="000000" foes="111000" cont="0"/>
        <request index="2" response="000000" foes="100000" cont="0"/>
        <request index="3" response="000011" foes="100011" cont="1"/>
        <request index="4" response="000010" foes="000010" cont="0"/>
        <request index="5" response="001110" foes="001110" cont="0"/>
    </junction>
    <junction id="J4" type="dead_end" x="200.00" y="200.00" incLanes="E2_0" intLanes="" shape="200.00,200.00 203.20,200.00 200.00,200.00"/>
    <junction id="J5" type="dead_end" x="200.00" y="0.00" incLanes="E3_0" intLanes="" shape="200.00,0.00 196.80,0.00 200.00,0.00"/>

    <junction id=":J2_6_0" type="internal" x="200.96" y="96.80" incLanes=":J2_3_0 -E2_0" intLanes=":J2_0_0 :J2_1_0 :J2_5_0"/>

    <connection from="-E1" to="-E0" fromLane="0" toLane="0" via=":J1_0_0" dir="s" state="M"/>
    <connection from="-E2" to="-E1" fromLane="0" toLane="0" via=":J2_0_0" dir="r" state="M"/>
    <connection from="-E2" to="E3" fromLane="0" toLane="0" via=":J2_1_0" dir="s" state="M"/>
    <connection from="-E3" to="E2" fromLane="0" toLane="0" via=":J2_2_0" dir="s" state="M"/>
    <connection from="-E3" to="-E1" fromLane="0" toLane="0" via=":J2_3_0" dir="l" state="m"/>
    <connection from="E0" to="E1" fromLane="0" toLane="0" via=":J1_1_0" dir="s" state="M"/>
    <connection from="E1" to="E3" fromLane="0" toLane="0" via=":J2_4_0" dir="r" state="m"/>
    <connection from="E1" to="E2" fromLane="0" toLane="0" via=":J2_5_0" dir="l" state="m"/>

    <connection from=":J1_0" to="-E0" fromLane="0" toLane="0" dir="s" state="M"/>
    <connection from=":J1_1" to="E1" fromLane="0" toLane="0" dir="s" state="M"/>
    <connection from=":J2_0" to="-E1" fromLane="0" toLane="0" dir="r" state="M"/>
    <connection from=":J2_1" to="E3" fromLane="0" toLane="0" dir="s" state="M"/>
    <connection from=":J2_2" to="E2" fromLane="0" toLane="0" dir="s" state="M"/>
    <connection from=":J2_3" to="-E1" fromLane="0" toLane="0" via=":J2_6_0" dir="l" state="m"/>
    <connection from=":J2_6" to="-E1" fromLane="0" toLane="0" dir="l" state="M"/>
    <connection from=":J2_4" to="E3" fromLane="0" toLane="0" dir="r" state="M"/>
    <connection from=":J2_5" to="E2" fromLane="0" toLane="0" dir="l" state="M"/>

</net>
